95
Fe3 Ge1 Te2                             
Te    1.973704    1.139519   10.048399
Te    1.973704    1.139519   26.852808
Te    0.000000    4.558075   10.048399
Te    0.000000    4.558075   26.852808
Te    5.921113    1.139519   10.048399
Te    5.921113    1.139519   26.852808
Te    3.947409    4.558075   10.048399
Te    3.947409    4.558075   26.852808
Te    0.000000    2.279037    6.751842
Te    0.000000    2.279037   23.556252
Te   -1.973704    5.697594    6.751842
Te   -1.973704    5.697594   23.556252
Te    3.947408    2.279037    6.751842
Te    3.947408    2.279037   23.556252
Te    1.973704    5.697594    6.751842
Te    1.973704    5.697594   23.556252
Te    0.000000    2.279037    1.656434
Te    0.000000    2.279037   18.452158
Te   -1.973704    5.697594    1.656434
Te   -1.973704    5.697594   18.452158
Te    3.947408    2.279037    1.656434
Te    3.947408    2.279037   18.452158
Te    1.973704    5.697594    1.656434
Te    1.973704    5.697594   18.452158
Te    1.973704    1.139519   15.152495
Te    0.000000    4.558075   15.152495
Te    0.000000    4.558075   31.948217
Te    5.921113    1.139519   15.152495
Te    5.921113    1.139519   31.948217
Te    3.947409    4.558075   15.152495
Te    3.947409    4.558075   31.948217
Ge    0.000000    2.279037   12.601213
Ge    0.000000    2.279037   29.401321
Ge   -1.973704    5.697594   12.601213
Ge   -1.973704    5.697594   29.401321
Ge    3.947409    2.279037   12.601213
Ge    3.947409    2.279037   29.401321
Ge    1.973704    5.697594   12.601213
Ge    1.973704    5.697594   29.401321
Ge    1.973704    1.139519    4.203334
Ge    1.973704    1.139519   21.003439
Ge    0.000000    4.558074    4.203334
Ge    0.000000    4.558074   21.003439
Ge    5.921113    1.139519    4.203334
Ge    5.921113    1.139519   21.003439
Ge    3.947409    4.558074    4.203334
Ge    3.947409    4.558074   21.003439
Fe    0.000000    0.000000   11.368746
Fe    0.000000    0.000000   28.172874
Fe   -1.973704    3.418556   11.368746
Fe   -1.973704    3.418556   28.172874
Fe    3.947409    0.000000   11.368746
Fe    3.947409    0.000000   28.172874
Fe    1.973704    3.418556   11.368746
Fe    1.973704    3.418556   28.172874
Fe    0.000000    0.000000    5.431779
Fe    0.000000    0.000000   22.235907
Fe   -1.973704    3.418556    5.431779
Fe   -1.973704    3.418556   22.235907
Fe    3.947409    0.000000    5.431779
Fe    3.947409    0.000000   22.235907
Fe    1.973704    3.418556    5.431779
Fe    1.973704    3.418556   22.235907
Fe    0.000000    0.000000    2.966560
Fe    0.000000    0.000000   19.769110
Fe   -1.973704    3.418556    2.966560
Fe   -1.973704    3.418556   19.769110
Fe    3.947409    0.000000    2.966560
Fe    3.947409    0.000000   19.769110
Fe    1.973704    3.418556    2.966560
Fe    1.973704    3.418556   19.769110
Fe    0.000000    0.000000   13.835545
Fe    0.000000    0.000000   30.638092
Fe   -1.973704    3.418556   13.835545
Fe   -1.973704    3.418556   30.638092
Fe    3.947409    0.000000   13.835545
Fe    3.947409    0.000000   30.638092
Fe    1.973704    3.418556   13.835545
Fe    1.973704    3.418556   30.638092
Fe    1.973704    1.139519   12.602238
Fe    1.973704    1.139519   29.412382
Fe    0.000000    4.558075   12.602238
Fe    0.000000    4.558075   29.412382
Fe    5.921113    1.139519   12.602238
Fe    5.921113    1.139519   29.412382
Fe    3.947409    4.558075   12.602238
Fe    3.947409    4.558075   29.412382
Fe    0.000000    2.279037    4.192272
Fe    0.000000    2.279037   21.002415
Fe   -1.973704    5.697594    4.192272
Fe   -1.973704    5.697594   21.002415
Fe    3.947408    2.279037    4.192272
Fe    3.947408    2.279037   21.002415
Fe    1.973704    5.697594    4.192272
Fe    1.973704    5.697594   21.002415
